reduced_networks/ieee34/62pct/dss/Branches.dss
! Radial Kron-equivalent series elements
new Reactor.kr_2_3 phases=3 bus1=800.1.2.3 bus2=808.1.2.3 rmatrix=[9.250988328124491 | 1.453913733920065 9.161024487081136 | 1.473977240659088 1.429684427234786 9.199775424420903] xmatrix=[9.23396457888504 | 3.999250475060201 9.390357923385308 | 3.470546377308989 3.177128930832844 9.322537225228611]
new Reactor.kr_3_4 phases=3 bus1=808.1.2.3 bus2=812.1.2.3 rmatrix=[9.494318175000002 | 1.492187512499996 9.401988637500001 | 1.512784087499998 1.467329549999998 9.441761362500005] xmatrix=[9.476562487500001 | 4.104403424999998 9.637073850000004 | 3.5617897875 3.260653424999999 9.567471600000005]
new Reactor.kr_4_5 phases=3 bus1=812.1.2.3 bus2=814.1.2.3 rmatrix=[7.527095449139997 | 1.183006259910002 7.45389659181 | 1.19933522457 1.163298867239999 7.485428408189999] xmatrix=[7.513018740089999 | 3.253971035339999 7.640272148279998 | 2.823786943529999 2.58504603534 7.585091484479998]
new Reactor.kr_6_7 phases=3 bus1=814r.1.2.3 bus2=816.1.2.3 rmatrix=[0.116969696882194 | 0.01410303037936355 0.1161030303227805 | 0.01429696957776773 0.01386666653737226 0.1164787877614782] xmatrix=[0.0855454544275777 | 0.03904242429717511 0.08655151522482918 | 0.03449090910348404 0.03174545438717288 0.0861151513841469]
new Reactor.kr_7_8 phases=3 bus1=816.1.2.3 bus2=824.1.2.3 rmatrix=[3.732064393629999 | 0.4499748137000019 3.7044123137 | 0.4561626863000005 0.4424333299300002 3.716401324519999] xmatrix=[2.72943465445 | 1.245697350960001 2.76153428185 | 1.10047556911 1.01287840445 2.74761154808]
new Reactor.kr_7_9 phases=1 bus1=816.1 bus2=820.1 rmatrix=[26.43568084929431] xmatrix=[14.02819343022286]
new Reactor.kr_8_10 phases=3 bus1=824.1.2.3 bus2=830.1.2.3 rmatrix=[7.778456190654073 | 0.9378439208625843 7.720823080447945 | 0.9507402898933331 0.922124992055274 7.745810470541738] xmatrix=[5.688782874894814 | 2.596312810515669 5.755684905784898 | 2.293639373389933 2.111067993160268 5.726666459149534]
new Reactor.kr_10_13 phases=3 bus1=830.1.2.3 bus2=852.1.2.3 rmatrix=[13.65249686723887 | 1.646053109286099 13.55127472546903 | 1.668704935455942 1.618466611056619 13.5951988233959] xmatrix=[9.984773763880003 | 4.556960424553809 10.10222348307165 | 4.025720244949972 3.705276535068506 10.0512673875286]
new Reactor.kr_11_12 phases=3 bus1=852r.1.2.3 bus2=888.1.2.3 rmatrix=[19158.76960629392 | -19138.66392151315 16704.26393867909 | -14372.53995774298 -11312.81872983513 14975.43682598377] xmatrix=[-128360.9734057824 | 24626.9479053491 -128615.9827105042 | 23004.3097402618 21767.3498237622 -128817.3026430207]
new Reactor.kr_12_14 phases=3 bus1=888.1.2.3 bus2=890.1.2.3 rmatrix=[2.673599998080005 | 0.4202000035199988 2.647600000320001 | 0.4259999990400017 0.4132000012799983 2.658799999679999] xmatrix=[2.668599996480001 | 1.155800004479999 2.71379999616 | 1.003000004160002 0.9182000044800036 2.694200002560005]
